# DIS package for  MODFLOW-2005, generated by Flopy.
         1      1124      1412        50         4         1
  0
CONSTANT    5.280000E+03                           #delr                          
CONSTANT    5.280000E+03                           #delc                          
CONSTANT    1.000000E+02                           #model_top                     
CONSTANT    0.000000E+00                           #botm layer 1                  
    365.250000             1  1.000000  SS 
    365.250000             1  1.000000  TR 
    365.250000             1  1.000000  TR 
    365.250000             1  1.000000  TR 
    365.250000             1  1.000000  TR 
    365.250000             1  1.000000  TR 
    365.250000             1  1.000000  TR 
    365.250000             1  1.000000  TR 
    365.250000             1  1.000000  TR 
    365.250000             1  1.000000  TR 
    365.250000             1  1.000000  TR 
    365.250000             1  1.000000  TR 
    365.250000             1  1.000000  TR 
    365.250000             1  1.000000  TR 
    365.250000             1  1.000000  TR 
    365.250000             1  1.000000  TR 
    365.250000             1  1.000000  TR 
    365.250000             1  1.000000  TR 
    365.250000             1  1.000000  TR 
    365.250000             1  1.000000  TR 
    365.250000             1  1.000000  TR 
    365.250000             1  1.000000  TR 
    365.250000             1  1.000000  TR 
    365.250000             1  1.000000  TR 
    365.250000             1  1.000000  TR 
    365.250000             1  1.000000  TR 
    365.250000             1  1.000000  TR 
    365.250000             1  1.000000  TR 
    365.250000             1  1.000000  TR 
    365.250000             1  1.000000  TR 
    365.250000             1  1.000000  TR 
    365.250000             1  1.000000  TR 
    365.250000             1  1.000000  TR 
    365.250000             1  1.000000  TR 
    365.250000             1  1.000000  TR 
    365.250000             1  1.000000  TR 
    365.250000             1  1.000000  TR 
    365.250000             1  1.000000  TR 
    365.250000             1  1.000000  TR 
    365.250000             1  1.000000  TR 
    365.250000             1  1.000000  TR 
    365.250000             1  1.000000  TR 
    365.250000             1  1.000000  TR 
    365.250000             1  1.000000  TR 
    365.250000             1  1.000000  TR 
    365.250000             1  1.000000  TR 
    365.250000             1  1.000000  TR 
    365.250000             1  1.000000  TR 
    365.250000             1  1.000000  TR 
    365.250000             1  1.000000  TR 
