# Name file for MODFLOW-2005, generated by Flopy version 3.2.9.
#xul:0; yul:5934720; rotation:65; proj4_str:+init=EPSG:4326; units:meters; lenuni:1; length_multiplier:0.3048 ;start_datetime:1-1-1970
LIST               2  trinity_rech_max.list
DIS               11  trinity_rech_max.dis 
RCH               19  trinity_rech_max.rch 
